@inherits BasePlugin

<h1>Welcome to FluentCMS.</h1>
<h2>This is the home page.</h2>
<div><a href="/admin">Continue to admin panel</a></div>
